<?xml version="1.0" encoding="UTF-8"?>

<!-- generated on 2023-03-01 10:21:11 by Eclipse SUMO netconvert Version 1.11.0
<configuration xmlns:xsi="http://www.w3.org/2001/XMLSchema-instance" xsi:noNamespaceSchemaLocation="http://sumo.dlr.de/xsd/netconvertConfiguration.xsd">

    <input>
        <osm-files value="NoveZamky.osm"/>
    </input>

    <output>
        <output-file value="NoveZamky.net.xml"/>
    </output>

    <projection>
        <proj.utm value="true"/>
    </projection>

    <report>
        <aggregate-warnings value="5"/>
    </report>

</configuration>
-->

<net version="1.9" junctionCornerDetail="5" limitTurnSpeed="5.50" xmlns:xsi="http://www.w3.org/2001/XMLSchema-instance" xsi:noNamespaceSchemaLocation="http://sumo.dlr.de/xsd/net_file.xsd">

    <location netOffset="-288042.61,-5318279.36" convBoundary="0.00,0.00,701.66,723.11" origBoundary="18.159147,47.982829,18.168493,47.989296" projParameter="+proj=utm +zone=34 +ellps=WGS84 +datum=WGS84 +units=m +no_defs"/>

    <type id="highway.bridleway" priority="1" numLanes="1" speed="2.78" allow="pedestrian" oneway="1" width="2.00"/>
    <type id="highway.bus_guideway" priority="1" numLanes="1" speed="27.78" allow="bus" oneway="1"/>
    <type id="highway.cycleway" priority="1" numLanes="1" speed="8.33" allow="bicycle" oneway="0" width="1.00"/>
    <type id="highway.footway" priority="1" numLanes="1" speed="2.78" allow="pedestrian" oneway="1" width="2.00"/>
    <type id="highway.ford" priority="1" numLanes="1" speed="2.78" allow="army" oneway="0"/>
    <type id="highway.living_street" priority="2" numLanes="1" speed="2.78" disallow="tram rail_urban rail rail_electric rail_fast ship" oneway="0"/>
    <type id="highway.motorway" priority="14" numLanes="2" speed="39.44" allow="private emergency authority army vip passenger hov taxi bus coach delivery truck trailer motorcycle evehicle custom1 custom2" oneway="1"/>
    <type id="highway.motorway_link" priority="9" numLanes="1" speed="22.22" allow="private emergency authority army vip passenger hov taxi bus coach delivery truck trailer motorcycle evehicle custom1 custom2" oneway="1"/>
    <type id="highway.path" priority="1" numLanes="1" speed="2.78" allow="pedestrian bicycle" oneway="0" width="2.00"/>
    <type id="highway.pedestrian" priority="1" numLanes="1" speed="2.78" allow="pedestrian" oneway="1" width="2.00"/>
    <type id="highway.primary" priority="12" numLanes="2" speed="27.78" disallow="tram rail_urban rail rail_electric rail_fast ship" oneway="0"/>
    <type id="highway.primary_link" priority="7" numLanes="1" speed="22.22" disallow="tram rail_urban rail rail_electric rail_fast ship" oneway="0"/>
    <type id="highway.raceway" priority="15" numLanes="2" speed="83.33" allow="vip" oneway="0"/>
    <type id="highway.residential" priority="3" numLanes="1" speed="13.89" disallow="tram rail_urban rail rail_electric rail_fast ship" oneway="0"/>
    <type id="highway.secondary" priority="11" numLanes="1" speed="27.78" disallow="tram rail_urban rail rail_electric rail_fast ship" oneway="0"/>
    <type id="highway.secondary_link" priority="6" numLanes="1" speed="22.22" disallow="tram rail_urban rail rail_electric rail_fast ship" oneway="0"/>
    <type id="highway.service" priority="1" numLanes="1" speed="5.56" allow="pedestrian delivery bicycle" oneway="0"/>
    <type id="highway.stairs" priority="1" numLanes="1" speed="1.39" allow="pedestrian" oneway="1" width="2.00"/>
    <type id="highway.step" priority="1" numLanes="1" speed="1.39" allow="pedestrian" oneway="1" width="2.00"/>
    <type id="highway.steps" priority="1" numLanes="1" speed="1.39" allow="pedestrian" oneway="1" width="2.00"/>
    <type id="highway.tertiary" priority="10" numLanes="1" speed="22.22" disallow="tram rail_urban rail rail_electric rail_fast ship" oneway="0"/>
    <type id="highway.tertiary_link" priority="5" numLanes="1" speed="22.22" disallow="tram rail_urban rail rail_electric rail_fast ship" oneway="0"/>
    <type id="highway.track" priority="1" numLanes="1" speed="5.56" allow="pedestrian motorcycle moped bicycle" oneway="0"/>
    <type id="highway.trunk" priority="13" numLanes="2" speed="27.78" disallow="pedestrian bicycle tram rail_urban rail rail_electric rail_fast ship" oneway="0"/>
    <type id="highway.trunk_link" priority="8" numLanes="1" speed="22.22" disallow="pedestrian bicycle tram rail_urban rail rail_electric rail_fast ship" oneway="0"/>
    <type id="highway.unclassified" priority="4" numLanes="1" speed="13.89" disallow="tram rail_urban rail rail_electric rail_fast ship" oneway="0"/>
    <type id="highway.unsurfaced" priority="1" numLanes="1" speed="8.33" disallow="tram rail_urban rail rail_electric rail_fast ship" oneway="0"/>
    <type id="railway.highspeed" priority="21" numLanes="1" speed="69.44" allow="rail_fast" oneway="1"/>
    <type id="railway.light_rail" priority="19" numLanes="1" speed="27.78" allow="rail_urban" oneway="1"/>
    <type id="railway.preserved" priority="16" numLanes="1" speed="27.78" allow="rail" oneway="1"/>
    <type id="railway.rail" priority="20" numLanes="1" speed="44.44" allow="rail" oneway="1"/>
    <type id="railway.subway" priority="18" numLanes="1" speed="27.78" allow="rail_urban" oneway="1"/>
    <type id="railway.tram" priority="17" numLanes="1" speed="13.89" allow="tram" oneway="1"/>

    <edge id=":1549802419_0" function="internal">
        <lane id=":1549802419_0_0" index="0" disallow="tram rail_urban rail rail_electric rail_fast ship" speed="2.78" length="4.74" shape="458.57,162.17 459.95,162.41 460.89,162.62 461.81,162.91 463.14,163.37"/>
    </edge>
    <edge id=":162550968_0" function="internal">
        <lane id=":162550968_0_0" index="0" disallow="tram rail_urban rail rail_electric rail_fast ship" speed="2.78" length="4.67" shape="61.19,451.01 59.78,450.73 59.10,450.14 59.16,449.25 59.96,448.05"/>
    </edge>
    <edge id=":162551001_0" function="internal">
        <lane id=":162551001_0_0" index="0" disallow="tram rail_urban rail rail_electric rail_fast ship" speed="8.33" length="14.79" shape="134.88,308.20 131.22,307.69 127.68,306.73 124.23,305.42 120.82,303.90"/>
    </edge>
    <edge id=":162551001_1" function="internal">
        <lane id=":162551001_1_0" index="0" disallow="tram rail_urban rail rail_electric rail_fast ship" speed="6.74" length="13.19" shape="134.88,308.20 131.76,307.40 130.29,305.49 130.49,302.47 132.35,298.34"/>
    </edge>
    <edge id=":162551001_2" function="internal">
        <lane id=":162551001_2_0" index="0" disallow="tram rail_urban rail rail_electric rail_fast ship" speed="2.78" length="4.76" shape="134.88,308.20 133.90,307.10 133.71,306.21 134.31,305.53 135.69,305.04"/>
    </edge>
    <edge id=":162551001_3" function="internal">
        <lane id=":162551001_3_0" index="0" disallow="tram rail_urban rail rail_electric rail_fast ship" speed="6.64" length="8.84" shape="121.85,300.85 123.89,301.39 125.77,301.03 127.50,299.77 129.08,297.61"/>
    </edge>
    <edge id=":162551001_4" function="internal">
        <lane id=":162551001_4_0" index="0" disallow="tram rail_urban rail rail_electric rail_fast ship" speed="8.33" length="14.55" shape="121.85,300.85 125.22,302.35 128.60,303.62 132.06,304.55 135.69,305.04"/>
    </edge>
    <edge id=":162551001_5" function="internal">
        <lane id=":162551001_5_0" index="0" disallow="tram rail_urban rail rail_electric rail_fast ship" speed="3.66" length="4.70" shape="121.85,300.85 122.74,302.00 122.86,302.89 122.22,303.52 120.82,303.90"/>
    </edge>
    <edge id=":162551001_6" function="internal">
        <lane id=":162551001_6_0" index="0" disallow="tram rail_urban rail rail_electric rail_fast ship" speed="8.33" length="11.94" shape="127.87,312.64 127.57,310.12 126.29,307.82 124.04,305.75 120.82,303.90"/>
    </edge>
    <edge id=":162551001_7" function="internal">
        <lane id=":162551001_7_0" index="0" disallow="tram rail_urban rail rail_electric rail_fast ship" speed="8.33" length="15.16" shape="127.87,312.64 128.19,309.22 128.84,306.06 130.12,302.61 132.35,298.34"/>
    </edge>
    <edge id=":162551001_8" function="internal">
        <lane id=":162551001_8_0" index="0" disallow="tram rail_urban rail rail_electric rail_fast ship" speed="2.78" length="12.41" shape="127.87,312.64 128.57,309.15 130.11,306.72 132.48,305.35 135.69,305.04"/>
    </edge>
    <edge id=":162551014_0" function="internal">
        <lane id=":162551014_0_0" index="0" disallow="tram rail_urban rail rail_electric rail_fast ship" speed="7.20" length="8.72" shape="223.76,179.26 223.43,177.42 223.87,175.57 225.08,173.71 227.06,171.84"/>
    </edge>
    <edge id=":162551014_1" function="internal">
        <lane id=":162551014_1_0" index="0" disallow="tram rail_urban rail rail_electric rail_fast ship" speed="2.78" length="4.67" shape="223.76,179.26 224.07,177.85 224.67,177.19 225.56,177.27 226.74,178.10"/>
    </edge>
    <edge id=":162551014_2" function="internal">
        <lane id=":162551014_2_0" index="0" disallow="tram rail_urban rail rail_electric rail_fast ship" speed="13.89" length="9.98" shape="217.41,175.87 225.07,169.33"/>
        <lane id=":162551014_2_1" index="1" disallow="tram rail_urban rail rail_electric rail_fast ship" speed="13.89" length="9.98" shape="219.54,178.25 227.06,171.84"/>
    </edge>
    <edge id=":162551014_4" function="internal">
        <lane id=":162551014_4_0" index="0" disallow="tram rail_urban rail rail_electric rail_fast ship" speed="5.82" length="8.93" shape="219.54,178.25 222.01,176.44 224.03,175.81 225.61,176.36 226.74,178.10"/>
    </edge>
    <edge id=":162551021_0" function="internal">
        <lane id=":162551021_0_0" index="0" disallow="tram rail_urban rail rail_electric rail_fast ship" speed="6.21" length="7.98" shape="260.52,154.80 260.32,153.26 261.00,151.81 262.56,150.44 264.99,149.15"/>
    </edge>
    <edge id=":162551021_1" function="internal">
        <lane id=":162551021_1_0" index="0" disallow="tram rail_urban rail rail_electric rail_fast ship" speed="2.78" length="4.67" shape="260.52,154.80 260.81,153.39 261.40,152.72 262.29,152.79 263.48,153.60"/>
    </edge>
    <edge id=":162551021_2" function="internal">
        <lane id=":162551021_2_0" index="0" disallow="tram rail_urban rail rail_electric rail_fast ship" speed="13.89" length="8.02" shape="256.36,149.69 263.72,146.22"/>
        <lane id=":162551021_2_1" index="1" disallow="tram rail_urban rail rail_electric rail_fast ship" speed="13.89" length="8.02" shape="257.86,152.52 264.99,149.15"/>
    </edge>
    <edge id=":162551021_4" function="internal">
        <lane id=":162551021_4_0" index="0" disallow="tram rail_urban rail rail_electric rail_fast ship" speed="5.50" length="6.65" shape="257.86,152.52 259.81,151.74 261.40,151.66 262.63,152.28 263.48,153.60"/>
    </edge>
    <edge id=":162551041_0" function="internal">
        <lane id=":162551041_0_0" index="0" disallow="tram rail_urban rail rail_electric rail_fast ship" speed="2.78" length="4.13" shape="466.89,164.68 468.02,165.11 468.75,165.55 469.32,166.20 469.94,167.24"/>
    </edge>
    <edge id=":162551047_0" function="internal">
        <lane id=":162551047_0_0" index="0" disallow="tram rail_urban rail rail_electric rail_fast ship" speed="2.78" length="11.31" shape="471.99,170.93 477.21,180.96"/>
    </edge>
    <edge id=":162551047_1" function="internal">
        <lane id=":162551047_1_0" index="0" disallow="tram rail_urban rail rail_electric rail_fast ship" speed="2.78" length="9.05" shape="471.99,170.93 472.90,173.28 472.77,175.28 471.61,176.90 469.42,178.16"/>
    </edge>
    <edge id=":162551050_0" function="internal">
        <lane id=":162551050_0_0" index="0" disallow="tram rail_urban rail rail_electric rail_fast ship" speed="5.56" length="11.43" shape="553.14,358.97 554.28,361.95 555.09,364.34 555.77,366.77 556.51,369.88"/>
    </edge>
    <edge id=":162551050_1" function="internal">
        <lane id=":162551050_1_0" index="0" disallow="tram rail_urban rail rail_electric rail_fast ship" speed="4.17" length="9.24" shape="553.14,358.97 553.70,361.38 553.32,363.41 552.00,365.06 549.75,366.33"/>
    </edge>
    <edge id=":1857018776_0" function="internal">
        <lane id=":1857018776_0_0" index="0" disallow="tram rail_urban rail rail_electric rail_fast ship" speed="2.78" length="4.67" shape="610.39,233.32 611.80,233.65 612.45,234.26 612.35,235.15 611.51,236.32"/>
    </edge>
    <edge id=":1857018832_0" function="internal">
        <lane id=":1857018832_0_0" index="0" disallow="tram rail_urban rail rail_electric rail_fast ship" speed="2.78" length="4.67" shape="690.00,335.30 691.41,335.63 692.06,336.23 691.97,337.12 691.12,338.29"/>
    </edge>
    <edge id=":1857018861_0" function="internal">
        <lane id=":1857018861_0_0" index="0" disallow="tram rail_urban rail rail_electric rail_fast ship" speed="4.17" length="10.31" shape="565.03,377.67 561.85,379.34 559.44,380.92 557.81,382.41 556.96,383.80"/>
    </edge>
    <edge id=":1857018861_1" function="internal">
        <lane id=":1857018861_1_0" index="0" disallow="tram rail_urban rail rail_electric rail_fast ship" speed="2.78" length="4.67" shape="565.03,377.67 563.60,377.47 562.90,376.92 562.91,376.03 563.65,374.79"/>
    </edge>
    <edge id=":1857018861_2" function="internal">
        <lane id=":1857018861_2_0" index="0" disallow="tram rail_urban rail rail_electric rail_fast ship" speed="4.17" length="9.06" shape="556.89,371.54 557.82,373.93 559.25,375.27 561.20,375.56 563.65,374.79"/>
    </edge>
    <edge id=":1857018861_3" function="internal">
        <lane id=":1857018861_3_0" index="0" disallow="tram rail_urban rail rail_electric rail_fast ship" speed="5.56" length="12.47" shape="556.89,371.54 557.60,374.84 557.95,377.72 557.79,380.57 556.96,383.80"/>
    </edge>
    <edge id=":197827656_0" function="internal">
        <lane id=":197827656_0_0" index="0" allow="pedestrian delivery bicycle" speed="5.56" length="8.24" shape="219.49,529.22 218.20,529.52 216.82,530.55 215.36,532.30 213.82,534.78"/>
    </edge>
    <edge id=":197827656_1" function="internal">
        <lane id=":197827656_1_0" index="0" disallow="tram rail_urban rail rail_electric rail_fast ship" speed="5.56" length="10.81" shape="219.49,529.22 216.39,529.12 214.08,529.17 211.78,529.36 208.70,529.69"/>
    </edge>
    <edge id=":197827656_2" function="internal">
        <lane id=":197827656_2_0" index="0" disallow="tram rail_urban rail rail_electric rail_fast ship" speed="5.56" length="8.06" shape="219.49,529.22 217.45,528.91 215.63,528.20 214.01,527.08 212.61,525.55"/>
    </edge>
    <edge id=":197827656_3" function="internal">
        <lane id=":197827656_3_0" index="0" allow="pedestrian delivery bicycle" speed="4.66" length="6.06" shape="211.02,533.22 211.72,531.50 211.56,530.33 210.56,529.73 208.70,529.69"/>
    </edge>
    <edge id=":197827656_4" function="internal">
        <lane id=":197827656_4_0" index="0" allow="pedestrian delivery bicycle" speed="5.56" length="8.17" shape="211.02,533.22 212.30,530.64 212.99,528.50 213.09,526.80 212.61,525.55"/>
    </edge>
    <edge id=":197827656_5" function="internal">
        <lane id=":197827656_5_0" index="0" allow="pedestrian delivery bicycle" speed="3.65" length="4.67" shape="211.02,533.22 212.31,532.56 213.20,532.60 213.70,533.34 213.82,534.78"/>
    </edge>
    <edge id=":197827660_0" function="internal">
        <lane id=":197827660_0_0" index="0" allow="pedestrian delivery bicycle" speed="5.56" length="0.48" shape="209.40,542.67 209.33,542.80 209.29,542.89 209.26,542.98 209.23,543.12"/>
    </edge>
    <edge id=":197827660_1" function="internal">
        <lane id=":197827660_1_0" index="0" allow="pedestrian delivery bicycle" speed="5.56" length="1.44" shape="206.10,542.45 206.20,542.03 206.28,541.75 206.40,541.48 206.61,541.11"/>
    </edge>
    <edge id=":21933772_0" function="internal">
        <lane id=":21933772_0_0" index="0" disallow="tram rail_urban rail rail_electric rail_fast ship" speed="4.17" length="5.80" shape="170.81,533.70 169.09,533.84 167.89,533.95 166.77,534.30 165.29,535.11"/>
    </edge>
    <edge id=":21933772_1" function="internal">
        <lane id=":21933772_1_0" index="0" disallow="tram rail_urban rail rail_electric rail_fast ship" speed="4.17" length="4.60" shape="170.81,533.70 167.89,533.78 166.68,533.20 166.82,532.89"/>
    </edge>
    <edge id=":21933772_4" function="internal">
        <lane id=":21933772_4_0" index="0" disallow="tram rail_urban rail rail_electric rail_fast ship" speed="4.17" length="3.91" shape="166.82,532.89 167.20,531.98 169.45,530.10"/>
    </edge>
    <edge id=":21933772_2" function="internal">
        <lane id=":21933772_2_0" index="0" disallow="tram rail_urban rail rail_electric rail_fast ship" speed="2.78" length="6.34" shape="163.59,532.40 165.27,531.59 166.56,531.31 167.82,530.99 169.45,530.10"/>
    </edge>
    <edge id=":21933772_3" function="internal">
        <lane id=":21933772_3_0" index="0" disallow="tram rail_urban rail rail_electric rail_fast ship" speed="2.78" length="2.34" shape="163.59,532.40 165.03,532.44 165.79,532.91"/>
    </edge>
    <edge id=":21933772_5" function="internal">
        <lane id=":21933772_5_0" index="0" disallow="tram rail_urban rail rail_electric rail_fast ship" speed="2.78" length="2.34" shape="165.79,532.91 165.88,533.80 165.29,535.11"/>
    </edge>
    <edge id=":25327043_0" function="internal">
        <lane id=":25327043_0_0" index="0" disallow="tram rail_urban rail rail_electric rail_fast ship" speed="3.65" length="4.67" shape="702.24,621.28 703.06,622.46 703.14,623.36 702.48,623.95 701.07,624.26"/>
    </edge>
    <edge id=":25330202_0" function="internal">
        <lane id=":25330202_0_0" index="0" disallow="tram rail_urban rail rail_electric rail_fast ship" speed="4.17" length="9.02" shape="523.64,268.23 521.50,269.44 520.26,271.06 519.93,273.07 520.49,275.49"/>
    </edge>
    <edge id=":25330202_1" function="internal">
        <lane id=":25330202_1_0" index="0" disallow="tram rail_urban rail rail_electric rail_fast ship" speed="2.78" length="11.42" shape="523.64,268.23 520.60,269.15 518.10,269.53 515.59,269.91 512.55,270.82"/>
    </edge>
    <edge id=":25330202_2" function="internal">
        <lane id=":25330202_2_0" index="0" disallow="tram rail_urban rail rail_electric rail_fast ship" speed="2.78" length="4.67" shape="523.64,268.23 522.24,267.92 521.57,267.32 521.65,266.43 522.48,265.25"/>
    </edge>
    <edge id=":25330202_3" function="internal">
        <lane id=":25330202_3_0" index="0" disallow="tram rail_urban rail rail_electric rail_fast ship" speed="2.78" length="9.14" shape="515.03,262.20 516.29,264.31 517.95,265.53 520.01,265.84 522.48,265.25"/>
    </edge>
    <edge id=":25330202_4" function="internal">
        <lane id=":25330202_4_0" index="0" disallow="tram rail_urban rail rail_electric rail_fast ship" speed="4.17" length="14.37" shape="515.03,262.20 520.49,275.49"/>
    </edge>
    <edge id=":25330202_5" function="internal">
        <lane id=":25330202_5_0" index="0" disallow="tram rail_urban rail rail_electric rail_fast ship" speed="2.78" length="10.24" shape="515.03,262.20 515.90,265.22 515.77,267.66 514.65,269.53 512.55,270.82"/>
    </edge>
    <edge id=":25330203_0" function="internal">
        <lane id=":25330203_0_0" index="0" disallow="tram rail_urban rail rail_electric rail_fast ship" speed="5.56" length="1.86" shape="556.90,383.99 557.56,382.25"/>
    </edge>
    <edge id=":25330208_0" function="internal">
        <lane id=":25330208_0_0" index="0" allow="pedestrian delivery bicycle" speed="5.13" length="4.91" shape="426.99,533.73 426.32,532.58 425.43,531.89 424.33,531.67 423.02,531.90"/>
    </edge>
    <edge id=":25330208_1" function="internal">
        <lane id=":25330208_1_0" index="0" allow="pedestrian delivery bicycle" speed="3.65" length="4.67" shape="426.99,533.73 427.27,532.31 427.86,531.64 428.75,531.70 429.95,532.51"/>
    </edge>
    <edge id=":25330208_2" function="internal">
        <lane id=":25330208_2_0" index="0" allow="pedestrian delivery bicycle" speed="5.56" length="5.25" shape="430.76,527.71 429.92,528.65 429.51,529.76 429.52,531.05 429.95,532.51"/>
    </edge>
    <edge id=":25330208_3" function="internal">
        <lane id=":25330208_3_0" index="0" disallow="tram rail_urban rail rail_electric rail_fast ship" speed="5.56" length="8.89" shape="430.76,527.71 428.70,529.35 427.17,530.33 425.51,531.06 423.02,531.90"/>
    </edge>
    <edge id=":25330209_0" function="internal">
        <lane id=":25330209_0_0" index="0" disallow="tram rail_urban rail rail_electric rail_fast ship" speed="6.53" length="8.36" shape="398.07,544.68 397.61,542.47 396.55,540.86 394.92,539.86 392.69,539.47"/>
    </edge>
    <edge id=":25330209_1" function="internal">
        <lane id=":25330209_1_0" index="0" disallow="tram rail_urban rail rail_electric rail_fast ship" speed="8.34" length="13.01" shape="398.07,544.68 398.02,541.25 398.34,538.22 398.97,535.21 399.87,531.88"/>
    </edge>
    <edge id=":25330209_2" function="internal">
        <lane id=":25330209_2_0" index="0" disallow="tram rail_urban rail rail_electric rail_fast ship" speed="3.65" length="2.34" shape="398.07,544.68 398.79,543.43 399.56,542.98"/>
    </edge>
    <edge id=":25330209_9" function="internal">
        <lane id=":25330209_9_0" index="0" disallow="tram rail_urban rail rail_electric rail_fast ship" speed="3.65" length="2.34" shape="399.56,542.98 400.38,543.32 401.26,544.46"/>
    </edge>
    <edge id=":25330209_3" function="internal">
        <lane id=":25330209_3_0" index="0" disallow="tram rail_urban rail rail_electric rail_fast ship" speed="7.67" length="10.48" shape="407.44,537.04 404.60,538.31 402.63,539.97 401.52,542.02 401.26,544.46"/>
    </edge>
    <edge id=":25330209_4" function="internal">
        <lane id=":25330209_4_0" index="0" disallow="tram rail_urban rail rail_electric rail_fast ship" speed="5.56" length="15.03" shape="407.44,537.04 403.84,538.10 400.16,538.91 396.43,539.39 392.69,539.47"/>
    </edge>
    <edge id=":25330209_5" function="internal">
        <lane id=":25330209_5_0" index="0" disallow="tram rail_urban rail rail_electric rail_fast ship" speed="4.17" length="12.84" shape="407.44,537.04 403.24,537.94 400.58,537.39 399.46,535.37 399.87,531.88"/>
    </edge>
    <edge id=":25330209_6" function="internal">
        <lane id=":25330209_6_0" index="0" disallow="tram rail_urban rail rail_electric rail_fast ship" speed="8.34" length="11.92" shape="402.96,532.75 402.07,535.91 401.47,538.54 401.19,541.21 401.26,544.46"/>
    </edge>
    <edge id=":25330209_7" function="internal">
        <lane id=":25330209_7_0" index="0" disallow="tram rail_urban rail rail_electric rail_fast ship" speed="4.17" length="5.28" shape="402.96,532.75 401.57,535.80 400.20,537.15"/>
    </edge>
    <edge id=":25330209_8" function="internal">
        <lane id=":25330209_8_0" index="0" disallow="tram rail_urban rail rail_electric rail_fast ship" speed="2.78" length="2.34" shape="402.96,532.75 401.86,533.68 400.98,533.85"/>
    </edge>
    <edge id=":25330209_10" function="internal">
        <lane id=":25330209_10_0" index="0" disallow="tram rail_urban rail rail_electric rail_fast ship" speed="4.17" length="8.08" shape="400.20,537.15 399.40,537.94 396.44,539.16 392.69,539.47"/>
    </edge>
    <edge id=":25330209_11" function="internal">
        <lane id=":25330209_11_0" index="0" disallow="tram rail_urban rail rail_electric rail_fast ship" speed="2.78" length="2.34" shape="400.98,533.85 400.32,533.25 399.87,531.88"/>
    </edge>
    <edge id=":3123076216_0" function="internal">
        <lane id=":3123076216_0_0" index="0" allow="pedestrian delivery bicycle" speed="5.12" length="5.04" shape="148.12,549.47 147.23,548.40 146.22,547.84 145.09,547.80 143.83,548.29"/>
    </edge>
    <edge id=":3123076216_1" function="internal">
        <lane id=":3123076216_1_0" index="0" allow="pedestrian delivery bicycle" speed="4.17" length="4.99" shape="151.84,543.53 150.80,544.41 150.28,545.41 150.30,546.54 150.84,547.79"/>
    </edge>
    <edge id=":3123076216_2" function="internal">
        <lane id=":3123076216_2_0" index="0" disallow="tram rail_urban rail rail_electric rail_fast ship" speed="8.34" length="9.33" shape="151.84,543.53 143.83,548.29"/>
    </edge>
    <edge id=":3123076216_3" function="internal">
        <lane id=":3123076216_3_0" index="0" disallow="tram rail_urban rail rail_electric rail_fast ship" speed="8.34" length="9.18" shape="142.26,545.50 150.15,540.81"/>
    </edge>
    <edge id=":3123076216_4" function="internal">
        <lane id=":3123076216_4_0" index="0" allow="pedestrian delivery bicycle" speed="6.92" length="4.88" shape="142.26,545.50 144.79,544.52 146.95,544.57"/>
    </edge>
    <edge id=":3123076216_5" function="internal">
        <lane id=":3123076216_5_0" index="0" allow="pedestrian delivery bicycle" speed="6.92" length="5.17" shape="146.95,544.57 147.07,544.57 149.09,545.67 150.84,547.79"/>
    </edge>
    <edge id=":4047444804_0" function="internal">
        <lane id=":4047444804_0_0" index="0" allow="pedestrian delivery bicycle" speed="5.20" length="5.04" shape="556.66,388.95 555.42,388.30 554.26,388.16 553.18,388.53 552.19,389.41"/>
    </edge>
    <edge id=":4047444804_1" function="internal">
        <lane id=":4047444804_1_0" index="0" allow="pedestrian delivery bicycle" speed="3.65" length="4.67" shape="556.66,388.95 556.15,387.60 556.28,386.72 557.07,386.30 558.51,386.34"/>
    </edge>
    <edge id=":4047444804_2" function="internal">
        <lane id=":4047444804_2_0" index="0" allow="pedestrian delivery bicycle" speed="4.91" length="4.59" shape="557.45,382.42 556.98,383.47 557.00,384.48 557.51,385.43 558.51,386.34"/>
    </edge>
    <edge id=":4047444804_3" function="internal">
        <lane id=":4047444804_3_0" index="0" disallow="tram rail_urban rail rail_electric rail_fast ship" speed="5.56" length="8.76" shape="557.45,382.42 556.00,384.58 554.97,386.02 553.86,387.42 552.19,389.41"/>
    </edge>
    <edge id=":4677335481_0" function="internal">
        <lane id=":4677335481_0_0" index="0" allow="pedestrian delivery bicycle" speed="5.56" length="3.22" shape="246.00,142.15 243.24,143.80"/>
    </edge>
    <edge id=":4677335481_1" function="internal">
        <lane id=":4677335481_1_0" index="0" allow="pedestrian delivery bicycle" speed="3.81" length="1.77" shape="246.00,142.15 244.61,141.29 244.55,141.17"/>
    </edge>
    <edge id=":4677335481_4" function="internal">
        <lane id=":4677335481_4_0" index="0" allow="pedestrian delivery bicycle" speed="3.81" length="3.52" shape="244.55,141.17 244.13,140.40 244.55,139.48 245.88,138.53"/>
    </edge>
    <edge id=":4677335481_2" function="internal">
        <lane id=":4677335481_2_0" index="0" allow="pedestrian delivery bicycle" speed="5.56" length="4.97" shape="241.59,141.05 245.88,138.53"/>
    </edge>
    <edge id=":4677335481_3" function="internal">
        <lane id=":4677335481_3_0" index="0" allow="pedestrian delivery bicycle" speed="3.65" length="2.34" shape="241.59,141.05 243.03,141.12 243.79,141.60"/>
    </edge>
    <edge id=":4677335481_5" function="internal">
        <lane id=":4677335481_5_0" index="0" allow="pedestrian delivery bicycle" speed="3.65" length="2.34" shape="243.79,141.60 243.86,142.50 243.24,143.80"/>
    </edge>
    <edge id=":4677335484_0" function="internal">
        <lane id=":4677335484_0_0" index="0" allow="pedestrian delivery bicycle" speed="5.56" length="4.40" shape="220.93,158.38 219.87,159.14 219.15,159.68 218.48,160.26 217.51,161.14"/>
    </edge>
    <edge id=":4677335484_1" function="internal">
        <lane id=":4677335484_1_0" index="0" allow="pedestrian delivery bicycle" speed="3.65" length="2.34" shape="220.93,158.38 219.49,158.42 218.70,158.00"/>
    </edge>
    <edge id=":4677335484_4" function="internal">
        <lane id=":4677335484_4_0" index="0" allow="pedestrian delivery bicycle" speed="3.65" length="2.34" shape="218.70,158.00 218.57,157.11 219.09,155.77"/>
    </edge>
    <edge id=":4677335484_2" function="internal">
        <lane id=":4677335484_2_0" index="0" allow="pedestrian delivery bicycle" speed="5.56" length="4.80" shape="215.35,158.77 216.41,157.82 217.15,157.18 217.93,156.59 219.09,155.77"/>
    </edge>
    <edge id=":4677335484_3" function="internal">
        <lane id=":4677335484_3_0" index="0" allow="pedestrian delivery bicycle" speed="3.65" length="2.34" shape="215.35,158.77 216.78,158.56 217.61,158.88"/>
    </edge>
    <edge id=":4677335484_5" function="internal">
        <lane id=":4677335484_5_0" index="0" allow="pedestrian delivery bicycle" speed="3.65" length="2.34" shape="217.61,158.88 217.86,159.74 217.51,161.14"/>
    </edge>
    <edge id=":4677335485_0" function="internal">
        <lane id=":4677335485_0_0" index="0" disallow="tram rail_urban rail rail_electric rail_fast ship" speed="5.56" length="5.00" shape="488.11,467.07 485.21,471.14"/>
    </edge>
    <edge id=":564120418_0" function="internal">
        <lane id=":564120418_0_0" index="0" disallow="tram rail_urban rail rail_electric rail_fast ship" speed="3.65" length="4.67" shape="383.27,723.52 382.19,724.47 381.32,724.65 380.64,724.06 380.18,722.70"/>
    </edge>
    <edge id=":567168298_0" function="internal">
        <lane id=":567168298_0_0" index="0" disallow="tram rail_urban rail rail_electric rail_fast ship" speed="6.53" length="8.35" shape="466.90,504.69 465.09,503.34 463.24,502.83 461.35,503.16 459.42,504.33"/>
    </edge>
    <edge id=":567168298_1" function="internal">
        <lane id=":567168298_1_0" index="0" disallow="tram rail_urban rail rail_electric rail_fast ship" speed="3.65" length="4.67" shape="466.90,504.69 466.61,503.28 466.89,502.43 467.74,502.14 469.15,502.41"/>
    </edge>
    <edge id=":567168298_2" function="internal">
        <lane id=":567168298_2_0" index="0" disallow="tram rail_urban rail rail_electric rail_fast ship" speed="6.28" length="7.33" shape="467.57,495.93 466.89,497.41 466.93,498.99 467.69,500.66 469.15,502.41"/>
    </edge>